176

H           -2.23560351284461       -1.65591214710801       -1.85515714204451
C           -3.23793244499018       -1.42876135009092       -1.51174837183785
C           -4.06332439535437       -0.59303085857000       -2.24617216066123
C           -5.33214180874105       -0.25863118573635       -1.77509391376139
C           -5.81539465683250       -0.88639243750112       -0.63001948027595
C           -4.99385028361506       -1.71144973857965        0.12351696935872
C           -3.68499932879521       -1.92447037533659       -0.28906579951439
O           -2.81664069098959       -2.59839035369693        0.55274932694953
C           -1.69461441375735       -1.94366371784048        0.96893632797802
C           -1.51086881752359       -0.58125693324227        0.72531476777558
C           -0.32792724373533        0.03856416714021        1.08413614866111
C            0.64848970385849       -0.67179191682796        1.76930404695488
C            0.46086182087220       -2.02238420236066        2.05491125982596
C           -0.70823377439818       -2.67986922449403        1.64418155762716
O           -0.83919109280980       -4.02169104032165        1.87990298816913
C           -0.84497524310779       -4.86875351416944        0.70378496935479
H           -1.37272551714826       -4.34505025929432       -0.10819693399077
C            0.62453995136035       -5.09475848483295        0.27932246959548
H            1.17278930264410       -4.15973285323786        0.46354587690457
O            0.59427046615480       -5.36742715422427       -1.11558485516267
C            1.68617183754855       -4.86123879163812       -1.88670490049793
C            1.31325884508535       -4.94154295171296       -3.36841266869724
H            0.94378069976736       -5.94393835490831       -3.59292665897608
H            2.22835261302299       -4.77294021284777       -3.94239410240999
C            0.27559859460739       -3.89254949785696       -3.79772079210511
N            0.24445149167867       -3.89170155848906       -5.25617677764541
H           -0.43837348724970       -3.20864685676594       -5.56842057835396
H            1.15351039158720       -3.58408888476645       -5.58839763235273
C           -1.13608369949919       -4.23358776016978       -3.31772891517376
H           -1.20624455210395       -4.22048042300757       -2.23273999155316
H           -1.41134619711691       -5.22634105984093       -3.67200041138960
H           -1.84978630571669       -3.51308102919822       -3.72022216369527
C            0.70359261310998       -2.48742334670329       -3.29171708255197
O            1.76130354531680       -2.02740198218445       -4.10909096070865
H            1.81167142283272       -1.05809705343257       -4.06902798430642
H           -0.15867299210394       -1.80050854211055       -3.38255336602525
C            1.10489028239337       -2.52535111366875       -1.79805411857914
C            1.79413067024187       -1.24043800186698       -1.35464272844689
H            2.73846074926192       -1.14042041682233       -1.88560767357368
H            2.00685526388324       -1.28867968243044       -0.28741413102594
H            1.16484574192527       -0.37692087748076       -1.55842054200388
H            0.18320264884025       -2.67462478865394       -1.20618896452124
O            2.03735345507710       -3.56406635225334       -1.51004641121261
H            2.58374643169442       -5.47417412301616       -1.68678566552352
C            1.32017422539775       -6.21148605868439        1.07774555631612
H            2.19781341946446       -6.55298481210920        0.50665438665986
O            1.77603687101397       -5.71667948508494        2.31576799551891
H            1.31206257544057       -4.89998663973906        2.56496310432631
C            0.39102170837850       -7.43186651715209        1.26693455160716
O            0.26996187477256       -8.10502072610992        0.03468007395787
H           -0.10600584004871       -7.49247980013963       -0.61815012448447
H            0.85708260771123       -8.12968201074919        1.97474920596366
C           -1.00488377390294       -7.03525908883476        1.77833634211266
C           -1.05638372183288       -6.61424848457997        3.26099889515154
O           -2.34191327010789       -6.13823052263466        3.56902727415683
H           -2.56005054822836       -5.45883195382198        2.91048425334265
H           -0.86068648571934       -7.49194760672099        3.88783760934666
H           -0.29581398179705       -5.85192668264084        3.48197050530565
O           -1.56175124038037       -6.01700366991976        0.94134860093532
H           -1.68284777622040       -7.88750172465964        1.63381020763559
O            1.42400546832181       -2.76598243527033        2.68008672030354
C            2.58852861169528       -2.08243321177253        3.00644173136843
C            2.59513501638013       -1.24409953649161        4.11609876386799
C            3.67088351361753       -0.39230211150544        4.30598040717240
C            4.73553784513026       -0.37878897386733        3.40451021932177
C            4.75996322688076       -1.30518331507229        2.36448200413207
C            3.68466121706545       -2.15583182736498        2.15626466632533
H            3.66562555523861       -2.83883091277918        1.31573543216831
H            5.60015583031715       -1.33347981898813        1.68219117594123
C            5.78272864291401        0.71655699908404        3.54792203908054
O            7.09300682886100        0.29160020413461        3.33989538206421
H            7.21235525706180        0.03728917299636        2.40609471965666
H            5.73795753502097        1.09948845184950        4.57876867110950
C            5.44554674849655        1.91332396177974        2.60378422582054
N            4.01324909988406        2.19715330820420        2.60823604000306
C            3.56775278138274        3.44462674502079        2.34856472448269
O            4.28822035234443        4.42445652774804        2.34381379011883
C            2.10060533991754        3.56137434338445        1.91681065589582
C            2.15277024357112        3.56202072574648        0.40297054553458
C            2.91570808276971        2.61365012878438       -0.27886413857450
C            3.18987670870600        2.73432483383642       -1.63557668194810
C            2.63534715928243        3.81352562584428       -2.34110810306396
C            1.80960840324002        4.72428060411335       -1.68117124741849
C            1.58846529607683        4.61189935117659       -0.31810868405428
H            0.99013974325904        5.35886698938846        0.19218722282679
H            1.39553543736697        5.55285010684731       -2.24316156754094
O            2.90133768291496        4.02162787224498       -3.64380998537827
H            3.69397459326938        3.53008837588374       -3.91989082543102
C            4.09275904914292        1.74259439643862       -2.27623930982316
C            5.44020262541780        1.65496562821219       -1.90044335390671
C            6.25919054933481        0.66469372955912       -2.42363384409887
C            5.74850198549056       -0.24704611929972       -3.34772707952625
C            4.42966701013664       -0.14514090326086       -3.76935751555210
C            3.60261565646289        0.83547689623280       -3.23028919612952
O            2.31871872269329        0.86621275298578       -3.65865759722504
H            1.74570144462124        1.45096849395984       -3.12330676555490
H            4.03882344291433       -0.84295819072917       -4.49782085859858
O            6.51603785557542       -1.22783002416046       -3.87129542751120
H            7.40046097153646       -1.23797200158820       -3.48075731112007
H            7.29501098126850        0.59624582668161       -2.11199786576949
C            6.09012370706271        2.73249561407089       -1.04709801356703
N            5.67459386777694        2.75299943013497        0.35093116435940
C            5.91236041892376        1.69515407391049        1.14719644680852
O            6.43705387212091        0.67118798632118        0.74663038540944
H            5.36220034826646        3.63464922128460        0.73678541865059
C            5.84312923885384        4.09360512600359       -1.68449962706027
O            5.68778072651614        4.25856811555787       -2.86443253283427
O            5.84430997337733        5.09324108742417       -0.80675249748590
H            5.70968517589322        5.93674641369359       -1.27046564205197
H            7.17937622752881        2.57335312924882       -1.07426131803048
H            3.33187971171617        1.76820596888503        0.25524792303041
N            1.25857677102302        2.53159832982050        2.55856206388595
C           -0.00704655899935        2.24722502106719        2.04195776369970
O           -1.00319798988926        2.43120179836219        2.69349508662573
C           -0.04109069032223        1.48644776983253        0.72224564721435
N           -1.05309149985374        2.04737397199361       -0.15306853731973
C           -0.81470092862346        2.14728881307311       -1.46947291226234
O            0.23457181642552        1.78691723108309       -1.98602255551097
C           -1.91768803297191        2.76421163471560       -2.32812804491309
N           -3.21356208729755        2.19092060396366       -2.00139474729572
C           -4.33219463599149        2.66177888651376       -2.62065359364999
O           -4.28968141244270        3.35007162475934       -3.61768146651160
C           -5.63942358033610        2.24753937074161       -1.95981362929657
N           -5.42201765052961        2.32197278556663       -0.51392418652383
C           -6.34491491793446        2.05306907195286        0.44039635900671
O           -7.43293224593190        1.54579444166256        0.22803218065412
C           -5.84538174843608        2.35138993388553        1.85795903220443
N           -5.48722343017410        3.75533652460767        2.03922328042404
C           -6.58134205157642        4.66341750356183        1.69534450660379
H           -7.45115423534769        4.42719984047152        2.30872638641579
H           -6.25829176110093        5.68211118521502        1.91325511309808
H           -6.85804638674590        4.59204971663553        0.63616487264102
H           -4.67665437811927        3.97884527460614        1.46237050576992
C           -4.62806068775487        1.45490369868699        2.14245413078969
H           -3.73445117460770        1.90287492316683        1.69222815858946
H           -4.79256525818370        0.49110369567440        1.64858120608205
C           -4.38309609754218        1.20206195254677        3.63893763435119
C           -3.97250317947975        2.48090884556437        4.37170959870329
H           -4.75312988756811        3.23653882321348        4.28823688697922
H           -3.80443790245663        2.26758189944266        5.42801711740277
H           -3.05384303306255        2.88527941658878        3.94726733237873
C           -3.30279224290031        0.12659666507469        3.79788538909782
H           -2.36487117942924        0.46230250749574        3.35383461554722
H           -3.13133684758305       -0.08191004038865        4.85419745234154
H           -3.60769929283681       -0.79877438558430        3.30699438685749
H           -5.31596586976439        0.82467205481825        4.08130285842286
H           -6.66570120019859        2.10814080182708        2.54373130444016
H           -4.67810924494684        2.94832115211680       -0.23319133337394
H           -6.41209368731126        2.96692269967992       -2.26216740268845
C           -6.11878467294003        0.83979028622536       -2.47144155851644
O           -7.49566559017996        0.72519726419396       -2.33774771072937
H           -7.75106402851197        0.94816634431214       -1.41339618918890
H           -5.89884184159591        0.81525993037830       -3.54992165699658
H           -3.30884415883443        1.73464029897030       -1.10633047269338
C           -1.92257019257523        4.30092296142614       -2.19405581933011
C           -2.62882840129813        4.80106536521592       -0.94998494597155
O           -3.03663930344148        4.07017954110891       -0.05692128398560
N           -2.77330382019843        6.13336205638500       -0.88901087569681
H           -3.27225542466765        6.51708685572834       -0.10589518713448
H           -2.50965704337331        6.73400042107242       -1.64698927224524
H           -0.89038438396024        4.66162673381330       -2.18514323684814
H           -2.41685339568608        4.73143555842135       -3.06891557916448
H           -1.68249596474358        2.52402592313712       -3.37284564384441
H           -1.86064158752594        2.47637419687893        0.28404705179825
H            0.92046018548316        1.53239281916261        0.20452095938946
H            1.12513666671685        2.81103691524658        3.53051426691585
H            1.73942370088760        4.54481555880424        2.24958203849260
H            3.37567819130193        1.41825551760208        2.50599958008499
H            5.95498157179182        2.81104086451804        2.97738961716469
H            3.66518345514365        0.29693499452874        5.14372016376687
H            1.74287237917468       -1.22731569228492        4.78389971736309
H            1.56481621444814       -0.17020954515082        2.05151001017615
H           -2.28071347131104       -0.01464428435144        0.22033170219335
H           -5.34310220286448       -2.15582054669074        1.04689865004686
H           -6.82922579696083       -0.70132996066194       -0.29828862247906
H           -3.70141717536271       -0.17383223279649       -3.17835291806798
